50506567
     RDKit          3D

 36 39  0  0  0  0  0  0  0  0999 V2000
   -2.1267   -3.1454   -2.4416 C   0  0  0  0  0  0  0  0  0  0  0  0
   -1.3656   -2.2105   -1.7013 O   0  0  0  0  0  0  0  0  0  0  0  0
   -1.9859   -1.2321   -0.9256 C   0  0  0  0  0  0  0  0  0  0  0  0
   -3.3515   -1.1091   -0.8268 C   0  0  0  0  0  0  0  0  0  0  0  0
   -3.9324   -0.1117   -0.0359 C   0  0  0  0  0  0  0  0  0  0  0  0
   -3.1476    0.7757    0.6663 C   0  0  0  0  0  0  0  0  0  0  0  0
   -1.7866    0.6691    0.5805 C   0  0  0  0  0  0  0  0  0  0  0  0
   -1.2341   -0.3158   -0.2003 C   0  0  0  0  0  0  0  0  0  0  0  0
    0.1883   -0.4675   -0.3234 N   0  0  0  0  0  0  0  0  0  0  0  0
    1.0408    0.4235    0.3857 C   0  0  0  0  0  0  0  0  0  0  0  0
    0.5968    1.4093    1.1724 N   0  0  0  0  0  0  0  0  0  0  0  0
    1.4685    2.2020    1.8032 C   0  0  0  0  0  0  0  0  0  0  0  0
    2.8400    1.9944    1.6355 C   0  0  0  0  0  0  0  0  0  0  0  0
    4.0089    3.0077    2.4413 Cl  0  0  0  0  0  0  0  0  0  0  0  0
    3.2890    0.9803    0.8260 C   0  0  0  0  0  0  0  0  0  0  0  0
    4.6691    0.7577    0.6459 N   0  0  0  0  0  0  0  0  0  0  0  0
    5.1330   -0.2897   -0.1906 C   0  0  0  0  0  0  0  0  0  0  0  0
    4.3137   -1.1475   -0.8732 C   0  0  0  0  0  0  0  0  0  0  0  0
    4.7887   -2.1610   -1.6834 C   0  0  0  0  0  0  0  0  0  0  0  0
    6.1444   -2.3461   -1.8345 C   0  0  0  0  0  0  0  0  0  0  0  0
    6.9799   -1.4904   -1.1534 C   0  0  0  0  0  0  0  0  0  0  0  0
    6.4890   -0.4727   -0.3398 C   0  0  0  0  0  0  0  0  0  0  0  0
    7.6027    0.6248    0.5347 P   0  0  0  0  0  0  0  0  0  0  0  0
    9.2575   -0.1228    0.4812 C   0  0  0  0  0  0  0  0  0  0  0  0
    7.6919    2.2457   -0.2424 C   0  0  0  0  0  0  0  0  0  0  0  0
    7.2029    0.7439    1.9938 O   0  0  0  0  0  0  0  0  0  0  0  0
    2.3619    0.2276    0.2271 N   0  0  0  0  0  0  0  0  0  0  0  0
   -5.3424   -0.0245    0.0341 N   0  0  0  0  0  0  0  0  0  0  0  0
   -5.9579    0.9935    0.8433 C   0  0  0  0  0  0  0  0  0  0  0  0
   -7.1671    1.6199    0.1779 C   0  0  0  0  0  0  0  0  0  0  0  0
   -8.0582    0.5882   -0.4753 C   0  0  0  0  0  0  0  0  0  0  0  0
   -7.2144   -0.1812   -1.4685 C   0  0  0  0  0  0  0  0  0  0  0  0
   -6.1641   -0.9494   -0.7002 C   0  0  0  0  0  0  0  0  0  0  0  0
   -8.5695   -0.3575    0.4914 N   0  0  0  0  0  0  0  0  0  0  0  0
   -9.4005    0.2732    1.4891 C   0  0  0  0  0  0  0  0  0  0  0  0
   -9.2626   -1.4014   -0.2264 C   0  0  0  0  0  0  0  0  0  0  0  0
  1  2  1  0
  2  3  1  0
  3  4  2  0
  4  5  1  0
  5  6  2  0
  6  7  1  0
  7  8  2  0
  8  9  1  0
  9 10  1  0
 10 11  2  0
 11 12  1  0
 12 13  2  0
 13 14  1  0
 13 15  1  0
 15 16  1  0
 16 17  1  0
 17 18  2  0
 18 19  1  0
 19 20  2  0
 20 21  1  0
 21 22  2  0
 22 23  1  0
 23 24  1  0
 23 25  1  0
 23 26  2  0
 15 27  2  0
  5 28  1  0
 28 29  1  0
 29 30  1  0
 30 31  1  0
 31 32  1  0
 32 33  1  0
 31 34  1  0
 34 35  1  0
 34 36  1  0
  8  3  1  0
 27 10  1  0
 33 28  1  0
 22 17  1  0
M  END
>  <Ki>  (1) 
nan

>  <IC50>  (1) 
 0.070000

$$$$
