50103698
     RDKit          3D

 30 33  0  0  0  0  0  0  0  0999 V2000
    4.0945    0.3537    3.1990 C   0  0  0  0  0  0  0  0  0  0  0  0
    3.2340   -0.0711    2.1806 O   0  0  0  0  0  0  0  0  0  0  0  0
    2.7519    0.7584    1.2000 C   0  0  0  0  0  0  0  0  0  0  0  0
    3.0155    2.0598    1.0620 N   0  0  0  0  0  0  0  0  0  0  0  0
    2.3839    2.5489    0.0063 N   0  0  0  0  0  0  0  0  0  0  0  0
    2.4653    3.9320   -0.4134 C   0  0  0  0  0  0  0  0  0  0  0  0
    1.6806    1.5623   -0.5809 C   0  0  0  0  0  0  0  0  0  0  0  0
    0.8135    1.4426   -1.7423 C   0  0  0  0  0  0  0  0  0  0  0  0
   -0.4708    2.0855   -1.6722 N   0  0  0  0  0  0  0  0  0  0  0  0
   -0.6529    3.0598   -2.7822 C   0  0  0  0  0  0  0  0  0  0  0  0
   -1.4913    1.9050   -0.7203 C   0  0  0  0  0  0  0  0  0  0  0  0
   -2.2612    2.9434   -0.6006 O   0  0  0  0  0  0  0  0  0  0  0  0
   -1.8370    0.7874    0.1467 C   0  0  0  0  0  0  0  0  0  0  0  0
   -1.6050    1.0397    1.5575 C   0  0  0  0  0  0  0  0  0  0  0  0
   -1.8415    0.1437    2.5257 C   0  0  0  0  0  0  0  0  0  0  0  0
   -2.3341   -1.0966    2.1834 C   0  0  0  0  0  0  0  0  0  0  0  0
   -2.5690   -1.9957    3.1699 F   0  0  0  0  0  0  0  0  0  0  0  0
   -2.5627   -1.3578    0.8518 C   0  0  0  0  0  0  0  0  0  0  0  0
   -2.3070   -0.3984   -0.1490 C   0  0  0  0  0  0  0  0  0  0  0  0
   -2.7381   -1.0288   -1.5270 C   0  0  1  0  0  0  0  0  0  0  0  0
   -2.0184    0.0016   -2.5704 C   0  0  0  0  0  0  0  0  0  0  0  0
   -1.6865   -2.1400   -1.6646 O   0  0  0  0  0  0  0  0  0  0  0  0
   -0.4935   -2.1030   -1.0726 C   0  0  0  0  0  0  0  0  0  0  0  0
    0.0879   -0.9420   -0.7639 N   0  0  0  0  0  0  0  0  0  0  0  0
    1.2891   -0.8757   -0.1662 C   0  0  0  0  0  0  0  0  0  0  0  0
    1.9482   -2.0454    0.1406 C   0  0  0  0  0  0  0  0  0  0  0  0
    1.3932   -3.2342   -0.1559 N   0  0  0  0  0  0  0  0  0  0  0  0
    0.2080   -3.2510   -0.7446 C   0  0  0  0  0  0  0  0  0  0  0  0
   -0.4022   -4.4931   -1.0694 N   0  0  0  0  0  0  0  0  0  0  0  0
    1.9054    0.4090    0.1720 C   0  0  0  0  0  0  0  0  0  0  0  0
  1  2  1  0
  2  3  1  0
  3  4  2  0
  4  5  1  0
  5  6  1  0
  5  7  1  0
  7  8  1  0
  8  9  1  0
  9 10  1  0
  9 11  1  0
 11 12  2  0
 11 13  1  0
 13 14  2  0
 14 15  1  0
 15 16  2  0
 16 17  1  0
 16 18  1  0
 18 19  2  0
 19 20  1  0
 20 21  1  6
 20 22  1  0
 22 23  1  0
 23 24  1  0
 24 25  2  0
 25 26  1  0
 26 27  2  0
 27 28  1  0
 28 29  1  0
 25 30  1  0
 30  3  1  0
 30  7  2  0
 19 13  1  0
 28 23  2  0
M  END
>  <Ki>  (1) 
nan

>  <IC50>  (1) 
 0.110000

$$$$
