50506530
     RDKit          3D

 42 46  0  0  0  0  0  0  0  0999 V2000
   -8.4183    3.2988    4.4014 C   0  0  0  0  0  0  0  0  0  0  0  0
   -7.7745    2.0307    3.8859 C   0  0  0  0  0  0  0  0  0  0  0  0
   -7.6671    2.1546    2.0747 P   0  0  0  0  0  0  0  0  0  0  0  0
   -6.8308    3.3303    1.6427 O   0  0  0  0  0  0  0  0  0  0  0  0
   -9.3528    2.4451    1.4759 C   0  0  0  0  0  0  0  0  0  0  0  0
   -9.4170    2.4368   -0.0398 C   0  0  0  0  0  0  0  0  0  0  0  0
   -7.0766    0.6126    1.3973 C   0  0  0  0  0  0  0  0  0  0  0  0
   -7.9828   -0.3937    1.0907 C   0  0  0  0  0  0  0  0  0  0  0  0
   -7.5893   -1.6100    0.5656 C   0  0  0  0  0  0  0  0  0  0  0  0
   -6.2320   -1.7689    0.3618 C   0  0  0  0  0  0  0  0  0  0  0  0
   -5.3001   -0.8016    0.6503 C   0  0  0  0  0  0  0  0  0  0  0  0
   -5.7276    0.3910    1.1691 C   0  0  0  0  0  0  0  0  0  0  0  0
   -4.8451    1.4564    1.5019 N   0  0  0  0  0  0  0  0  0  0  0  0
   -3.4359    1.3623    1.3213 C   0  0  0  0  0  0  0  0  0  0  0  0
   -2.8283    0.2720    0.8220 N   0  0  0  0  0  0  0  0  0  0  0  0
   -1.4955    0.1827    0.6488 C   0  0  0  0  0  0  0  0  0  0  0  0
   -0.9022   -0.9966    0.1138 N   0  0  0  0  0  0  0  0  0  0  0  0
    0.4809   -1.1394   -0.0846 C   0  0  0  0  0  0  0  0  0  0  0  0
    1.3536   -0.1351    0.2296 C   0  0  0  0  0  0  0  0  0  0  0  0
    2.7325   -0.2732    0.0349 C   0  0  0  0  0  0  0  0  0  0  0  0
    3.2332   -1.4360   -0.4816 C   0  0  0  0  0  0  0  0  0  0  0  0
    2.3643   -2.4559   -0.8027 C   0  0  0  0  0  0  0  0  0  0  0  0
    0.9912   -2.3016   -0.6023 C   0  0  0  0  0  0  0  0  0  0  0  0
    0.1161   -3.3287   -0.9260 O   0  0  0  0  0  0  0  0  0  0  0  0
    0.6284   -4.5326   -1.4605 C   0  0  0  0  0  0  0  0  0  0  0  0
    4.6436   -1.6194   -0.7016 N   0  0  0  0  0  0  0  0  0  0  0  0
    5.5577   -0.5172   -0.4812 C   0  0  0  0  0  0  0  0  0  0  0  0
    6.3700   -0.2656   -1.7515 C   0  0  0  0  0  0  0  0  0  0  0  0
    6.9923   -1.5525   -2.2000 C   0  0  0  0  0  0  0  0  0  0  0  0
    6.6850   -2.7232   -1.3190 C   0  0  0  0  0  0  0  0  0  0  0  0
    5.1825   -2.8861   -1.1365 C   0  0  0  0  0  0  0  0  0  0  0  0
    8.3673   -1.4056   -2.5353 N   0  0  0  0  0  0  0  0  0  0  0  0
    9.1902   -0.9947   -1.4349 C   0  0  0  0  0  0  0  0  0  0  0  0
   10.0313    0.2359   -1.7848 C   0  0  0  0  0  0  0  0  0  0  0  0
    9.1512    1.2463   -2.3226 N   0  0  0  0  0  0  0  0  0  0  0  0
    9.8329    2.4938   -2.5416 C   0  0  0  0  0  0  0  0  0  0  0  0
    8.5575    0.8208   -3.5663 C   0  0  0  0  0  0  0  0  0  0  0  0
    8.6291   -0.6769   -3.7490 C   0  0  0  0  0  0  0  0  0  0  0  0
   -0.7615    1.2537    1.0023 N   0  0  0  0  0  0  0  0  0  0  0  0
   -1.3132    2.3754    1.5086 C   0  0  0  0  0  0  0  0  0  0  0  0
   -2.6784    2.4665    1.6856 C   0  0  0  0  0  0  0  0  0  0  0  0
   -3.4618    3.8928    2.3378 Cl  0  0  0  0  0  0  0  0  0  0  0  0
  1  2  1  0
  2  3  1  0
  3  4  2  0
  3  5  1  0
  5  6  1  0
  3  7  1  0
  7  8  2  0
  8  9  1  0
  9 10  2  0
 10 11  1  0
 11 12  2  0
 12 13  1  0
 13 14  1  0
 14 15  2  0
 15 16  1  0
 16 17  1  0
 17 18  1  0
 18 19  2  0
 19 20  1  0
 20 21  2  0
 21 22  1  0
 22 23  2  0
 23 24  1  0
 24 25  1  0
 21 26  1  0
 26 27  1  0
 27 28  1  0
 28 29  1  0
 29 30  1  0
 30 31  1  0
 29 32  1  0
 32 33  1  0
 33 34  1  0
 34 35  1  0
 35 36  1  0
 35 37  1  0
 37 38  1  0
 16 39  2  0
 39 40  1  0
 40 41  2  0
 41 42  1  0
 12  7  1  0
 41 14  1  0
 23 18  1  0
 31 26  1  0
 38 32  1  0
M  END
>  <Ki>  (1) 
nan

>  <IC50>  (1) 
 0.120000

$$$$
