50506508
     RDKit          3D

 42 46  0  0  0  0  0  0  0  0999 V2000
    0.4558    4.0858    2.7296 C   0  0  0  0  0  0  0  0  0  0  0  0
    0.0856    3.0101    1.8895 O   0  0  0  0  0  0  0  0  0  0  0  0
    1.1077    2.3602    1.1969 C   0  0  0  0  0  0  0  0  0  0  0  0
    2.4396    2.7489    1.3224 C   0  0  0  0  0  0  0  0  0  0  0  0
    3.4286    2.0914    0.6286 C   0  0  0  0  0  0  0  0  0  0  0  0
    3.0577    1.0447   -0.1868 C   0  0  0  0  0  0  0  0  0  0  0  0
    1.7195    0.6595   -0.3085 C   0  0  0  0  0  0  0  0  0  0  0  0
    0.7221    1.3127    0.3829 C   0  0  0  0  0  0  0  0  0  0  0  0
   -0.6470    0.9434    0.2786 N   0  0  0  0  0  0  0  0  0  0  0  0
   -1.1326   -0.0994   -0.5071 C   0  0  0  0  0  0  0  0  0  0  0  0
   -0.3003   -0.8446   -1.2386 N   0  0  0  0  0  0  0  0  0  0  0  0
   -0.7566   -1.8590   -1.9993 C   0  0  0  0  0  0  0  0  0  0  0  0
   -2.1048   -2.1285   -2.0203 C   0  0  0  0  0  0  0  0  0  0  0  0
   -2.6491   -3.4557   -3.0221 Cl  0  0  0  0  0  0  0  0  0  0  0  0
   -2.9628   -1.3653   -1.2708 C   0  0  0  0  0  0  0  0  0  0  0  0
   -4.3341   -1.5959   -1.2532 N   0  0  0  0  0  0  0  0  0  0  0  0
   -5.2991   -0.8826   -0.5344 C   0  0  0  0  0  0  0  0  0  0  0  0
   -4.9323    0.1704    0.2506 C   0  0  0  0  0  0  0  0  0  0  0  0
   -5.8438    0.8882    0.9614 C   0  0  0  0  0  0  0  0  0  0  0  0
   -7.1797    0.5434    0.8882 C   0  0  0  0  0  0  0  0  0  0  0  0
   -7.5827   -0.5166    0.1030 C   0  0  0  0  0  0  0  0  0  0  0  0
   -6.6182   -1.2288   -0.6113 C   0  0  0  0  0  0  0  0  0  0  0  0
   -7.1514   -2.5661   -1.5923 S   0  0  0  0  0  0  0  0  0  0  0  0
   -6.5493   -3.8499   -1.0654 O   0  0  0  0  0  0  0  0  0  0  0  0
   -6.7966   -2.3726   -3.0475 O   0  0  0  0  0  0  0  0  0  0  0  0
   -8.9078   -2.7544   -1.4880 C   0  0  0  0  0  0  0  0  0  0  0  0
   -9.6489   -1.5245   -1.9614 C   0  0  0  0  0  0  0  0  0  0  0  0
   -9.3562   -3.0789   -0.0815 C   0  0  0  0  0  0  0  0  0  0  0  0
   -2.4384   -0.3734   -0.5384 N   0  0  0  0  0  0  0  0  0  0  0  0
    4.7992    2.4569    0.7320 N   0  0  0  0  0  0  0  0  0  0  0  0
    5.2139    3.5495    1.6140 C   0  0  0  0  0  0  0  0  0  0  0  0
    6.1651    2.8995    2.6271 C   0  0  0  0  0  0  0  0  0  0  0  0
    7.3659    2.4190    1.8434 C   0  0  0  0  0  0  0  0  0  0  0  0
    7.1455    2.5393    0.3462 C   0  0  0  0  0  0  0  0  0  0  0  0
    5.8475    1.7981   -0.0033 C   0  0  0  0  0  0  0  0  0  0  0  0
    7.6917    1.0368    2.1482 N   0  0  0  0  0  0  0  0  0  0  0  0
    6.6385    0.1196    1.7882 C   0  0  0  0  0  0  0  0  0  0  0  0
    7.1589   -1.1263    1.1161 C   0  0  0  0  0  0  0  0  0  0  0  0
    7.8310   -0.8647   -0.1255 N   0  0  0  0  0  0  0  0  0  0  0  0
    7.0470   -1.1045   -1.2959 C   0  0  0  0  0  0  0  0  0  0  0  0
    8.4077    0.4618   -0.0676 C   0  0  0  0  0  0  0  0  0  0  0  0
    8.8633    0.6846    1.3725 C   0  0  0  0  0  0  0  0  0  0  0  0
  1  2  1  0
  2  3  1  0
  3  4  2  0
  4  5  1  0
  5  6  2  0
  6  7  1  0
  7  8  2  0
  8  9  1  0
  9 10  1  0
 10 11  2  0
 11 12  1  0
 12 13  2  0
 13 14  1  0
 13 15  1  0
 15 16  1  0
 16 17  1  0
 17 18  2  0
 18 19  1  0
 19 20  2  0
 20 21  1  0
 21 22  2  0
 22 23  1  0
 23 24  2  0
 23 25  2  0
 23 26  1  0
 26 27  1  0
 26 28  1  0
 15 29  2  0
  5 30  1  0
 30 31  1  0
 31 32  1  0
 32 33  1  0
 33 34  1  0
 34 35  1  0
 33 36  1  0
 36 37  1  0
 37 38  1  0
 38 39  1  0
 39 40  1  0
 39 41  1  0
 41 42  1  0
  8  3  1  0
 29 10  1  0
 35 30  1  0
 42 36  1  0
 22 17  1  0
M  END
>  <Ki>  (1) 
nan

>  <IC50>  (1) 
 0.150000

$$$$
