325689
     RDKit          3D

 30 34  0  0  0  0  0  0  0  0999 V2000
    0.4424    1.1623    2.2149 C   0  0  0  0  0  0  0  0  0  0  0  0
    0.4960   -0.0755    1.3145 C   0  0  0  0  0  0  0  0  0  0  0  0
    0.2135   -1.2931    2.2252 C   0  0  0  0  0  0  0  0  0  0  0  0
    1.8292   -0.2116    0.7131 C   0  0  0  0  0  0  0  0  0  0  0  0
    3.0564   -0.2895    1.3458 N   0  0  0  0  0  0  0  0  0  0  0  0
    4.0260   -0.4076    0.4306 C   0  0  0  0  0  0  0  0  0  0  0  0
    5.3949   -0.5188    0.5274 C   0  0  0  0  0  0  0  0  0  0  0  0
    6.1450   -0.6278   -0.6210 C   0  0  0  0  0  0  0  0  0  0  0  0
    5.5314   -0.6252   -1.8481 C   0  0  0  0  0  0  0  0  0  0  0  0
    4.1652   -0.5140   -1.9391 C   0  0  0  0  0  0  0  0  0  0  0  0
    3.4154   -0.4054   -0.8000 C   0  0  0  0  0  0  0  0  0  0  0  0
    2.0411   -0.2829   -0.6264 C   0  0  0  0  0  0  0  0  0  0  0  0
    0.9136   -0.2248   -1.5441 C   0  0  0  0  0  0  0  0  0  0  0  0
    1.0927   -0.2894   -2.7856 O   0  0  0  0  0  0  0  0  0  0  0  0
   -0.4392   -0.0890   -0.9920 C   0  0  0  0  0  0  0  0  0  0  0  0
   -1.5533   -0.0273   -1.7949 C   0  0  0  0  0  0  0  0  0  0  0  0
   -2.8305    0.1005   -1.2847 C   0  0  0  0  0  0  0  0  0  0  0  0
   -4.3676    0.1849   -2.4093 Br  0  0  0  0  0  0  0  0  0  0  0  0
   -3.0139    0.1703    0.0776 C   0  0  0  0  0  0  0  0  0  0  0  0
   -1.9128    0.1099    0.8837 C   0  0  0  0  0  0  0  0  0  0  0  0
   -0.6027   -0.0212    0.3597 C   0  0  0  0  0  0  0  0  0  0  0  0
   -4.3344    0.3042    0.6465 N   0  0  0  0  0  0  0  0  0  0  0  0
   -5.3265   -0.7081    0.3982 C   0  0  0  0  0  0  0  0  0  0  0  0
   -6.5883   -0.0980   -0.1807 C   0  0  0  0  0  0  0  0  0  0  0  0
   -6.8956    1.2367    0.4769 C   0  0  0  0  0  0  0  0  0  0  0  0
   -6.3658    2.2663   -0.4238 N   0  0  0  0  0  0  0  0  0  0  0  0
   -6.1505    1.3054    1.8159 C   0  0  0  0  0  0  0  0  0  0  0  0
   -4.6851    1.4481    1.4706 C   0  0  0  0  0  0  0  0  0  0  0  0
    7.5776   -0.7441   -0.5190 C   0  0  0  0  0  0  0  0  0  0  0  0
    8.7257   -0.8354   -0.4208 N   0  0  0  0  0  0  0  0  0  0  0  0
  1  2  1  0
  2  3  1  0
  2  4  1  0
  4  5  1  0
  5  6  1  0
  6  7  2  0
  7  8  1  0
  8  9  2  0
  9 10  1  0
 10 11  2  0
 11 12  1  0
 12 13  1  0
 13 14  2  0
 13 15  1  0
 15 16  2  0
 16 17  1  0
 17 18  1  0
 17 19  2  0
 19 20  1  0
 20 21  2  0
 19 22  1  0
 22 23  1  0
 23 24  1  0
 24 25  1  0
 25 26  1  0
 25 27  1  0
 27 28  1  0
  8 29  1  0
 29 30  3  0
 21  2  1  0
 28 22  1  0
 12  4  2  0
 21 15  1  0
 11  6  1  0
M  END
>  <Ki>  (1) 
nan

>  <IC50>  (1) 
 0.168

$$$$
